*HEADING
cubit(/home/celen/Рабочий стол/mke/new/new/task2.inp): 06/03/2019: 19
version: 16.6b
**
********************************** P A R T S **********************************
*PART, NAME=Part-Default
**
********************************** N O D E S **********************************
*NODE, NSET=ALLNODES
     117,    6.123234e-17,    1.000000e+00,    0.000000e+00
     118,    1.000000e+00,    0.000000e+00,    0.000000e+00
     119,    1.564345e-01,    9.876883e-01,    0.000000e+00
     120,    3.090170e-01,    9.510565e-01,    0.000000e+00
     121,    4.539905e-01,    8.910065e-01,    0.000000e+00
     122,    5.877853e-01,    8.090170e-01,    0.000000e+00
     123,    7.071068e-01,    7.071068e-01,    0.000000e+00
     124,    8.090170e-01,    5.877853e-01,    0.000000e+00
     125,    8.910065e-01,    4.539905e-01,    0.000000e+00
     126,    9.510565e-01,    3.090170e-01,    0.000000e+00
     127,    9.876883e-01,    1.564345e-01,    0.000000e+00
     128,    2.000000e+00,    0.000000e+00,    0.000000e+00
     129,    1.142857e+00,    0.000000e+00,    0.000000e+00
     130,    1.285714e+00,    0.000000e+00,    0.000000e+00
     131,    1.428571e+00,    0.000000e+00,    0.000000e+00
     132,    1.571429e+00,    0.000000e+00,    0.000000e+00
     133,    1.714286e+00,    0.000000e+00,    0.000000e+00
     134,    1.857143e+00,    0.000000e+00,    0.000000e+00
     135,    1.224647e-16,    2.000000e+00,    0.000000e+00
     136,    1.991468e+00,    1.845367e-01,    0.000000e+00
** ... 104 like lines cut
**
********************************** E L E M E N T S ****************************
*ELEMENT, TYPE=STRI3, ELSET=PART-DEFAULT_1_EB1
     190,     143,     144,     158
     191,     127,     118,     129
     192,     159,     127,     129
     193,     160,     156,     157
     194,     161,     125,     126
     195,     162,     126,     127
     196,     163,     124,     125
     197,     164,     159,     130
     198,     213,     162,     159
     199,     136,     137,     166
     200,     157,     117,     119
     201,     167,     120,     121
     202,     168,     121,     122
     203,     169,     119,     120
     204,     170,     122,     123
     205,     171,     156,     160
     206,     172,     149,     150
     207,     152,     173,     151
     208,     135,     152,     151
     209,     174,     153,     154
** ... 185 like lines cut
**
********************************** N O D E S E T S **********************************
*NSET, NSET=NS_PART-DEFAULT_1_NS_ALLNODES
     117,     118,     119,     120,     121,     122,
     123,     124,     125,     126,     127,     128,
     129,     130,     131,     132,     133,     134,
     135,     136,     137,     138,     139,     140,
     141,     142,     143,     144,     145,     146,
     147,     148,     149,     150,     151,     152,
     153,     154,     155,     156,     157,     158,
     159,     160,     161,     162,     163,     164,
     165,     166,     167,     168,     169,     170,
     171,     172,     173,     174,     175,     176,
     177,     178,     179,     180,     181,     182,
     183,     184,     185,     186,     187,     188,
     189,     190,     191,     192,     193,     194,
     195,     196,     197,     198,     199,     200,
     201,     202,     203,     204,     205,     206,
     207,     208,     209,     210,     211,     212,
     213,     214,     215,     216,     217,     218,
     219,     220,     221,     222,     223,     224,
     225,     226,     227,     228,     229,     230,
     231,     232,     233,     234,     235,     236,
     237,     238,     239,     240,
**
********************************** P R O P E R T I E S ************************
*SHELL SECTION, ELSET=PART-DEFAULT_1_EB1, SECTION INTEGRATION=SIMPSON, MATERIAL=DEFAULT-STEEL
1.000000e+00
**
*END PART
**
**
**
********************************** E N D   P A R T S **********************************
**
**
********************************** A S S E M B L Y ************************************
**
*ASSEMBLY, NAME=ASSEMBLY1
**
*INSTANCE, NAME=Part-Default_1, PART=Part-Default
*END INSTANCE
**
*END ASSEMBLY
**
**
**
*MATERIAL, NAME = DEFAULT-STEEL
*ELASTIC, TYPE=ISOTROPIC
2.068000e+05, 2.900000e-01
*DENSITY
7.000000e-06
*CONDUCTIVITY,TYPE=ISO
4.500000e-02
*SPECIFIC HEAT
5.000000e+02
**
**
************************************** H I S T O R Y *************************************
**
*PREPRINT
**
**************************************** S T E P 1 ***************************************
*STEP,INC=100,NAME=DEFAULT SET
**
*STATIC
1, 1, 1e-05, 1
**
**
**
**
*END STEP
